14

C      21.12       9.31       0.38
C      22.87       8.30      -2.48
C      25.44       6.82      -0.38
C      23.69       7.83       2.48
O      25.50       8.08      -0.33
Cu      22.63       6.94       0.00
Cu      23.94       9.20       0.00
O      22.19       9.99       0.33
O      23.00       6.94       1.92
O      21.07       8.06       0.33
O      22.45       7.26      -1.92
O      23.56       9.20      -1.92
O      24.38       6.14      -0.33
O      24.12       8.87       1.92
