14

O      24.12      12.64      13.29
C      22.87      13.21      17.69
O      21.07      13.45      14.87
C      21.12      12.20      14.83
C      25.44      14.69      15.59
Cu      23.94      12.31      15.21
O      23.00      14.57      13.29
C      23.69      13.68      12.73
O      25.50      13.43      15.54
Cu      22.63      14.57      15.21
O      23.56      12.31      17.13
O      22.19      11.52      14.87
O      22.45      14.25      17.13
O      24.38      15.37      15.54
