14

O      22.19       3.65       9.31
C      23.69       4.95       6.56
O      22.45       0.61       7.48
C      25.44       1.91       6.56
Cu      22.63       2.31       6.54
O      23.56       1.26       9.31
C      21.12       3.46       8.65
Cu      23.94       3.07       8.67
C      22.87       0.43       8.65
O      21.07       3.00       7.48
O      23.00       4.12       5.90
O      25.50       2.38       7.73
O      24.12       4.76       7.73
O      24.38       1.73       5.90
