11

C       2.17      21.53      22.75
C      -0.23      21.53      25.14
O       1.31      24.72      22.33
O      -0.63      24.73      24.27
O       2.43      22.48      23.46
O       0.49      22.48      25.40
C       2.99      25.68      25.96
Zn       1.10      23.81      24.07
N       2.25      24.96      25.22
C      -1.66      24.39      23.70
C       0.74      24.39      21.31
