11

O      12.23      11.22       0.96
C      14.38       9.31      -0.73
C      11.99       9.31      -3.13
C      12.95      12.17       0.70
Zn      11.62       9.89      -0.37
N      10.47       8.74       0.78
C       9.75       8.02       1.53
C      10.55      12.17      -1.70
O      11.42       8.97      -2.10
O      13.36       8.98      -0.17
O      10.30      11.22      -0.98
