11

Zn      23.84      11.58      11.85
N      22.68      12.73      13.00
C      26.12      10.26      12.92
C      26.11      12.65      10.51
C      23.25      11.21       9.09
C      23.26       8.82      11.49
O      22.92      11.78      10.11
O      25.17      10.97      13.17
O      25.16      12.91      11.23
O      22.92       9.84      12.05
C      21.96      13.45      13.75
