20

O       1.81       1.27      10.22
O       3.54       2.27       9.30
Cu       2.43      -0.58      10.18
Cu       4.48       0.58       9.03
O       5.11       0.62      10.88
O       3.37      -0.31      11.88
O       5.11      -1.27       8.99
O       3.37      -2.27       9.91
H       0.38      -1.97      11.57
H      -0.21      -1.13      10.74
O       1.81      -0.62       8.33
O       3.54       0.31       7.33
H       6.54       1.97       7.64
H       7.12       1.13       8.47
O       0.59      -1.36      10.97
O       6.32       1.36       8.24
C       2.43       2.28       9.84
C       4.49       0.23      11.89
C       4.49      -2.28       9.37
C       2.43      -0.23       7.32
