13

Ce       5.23       6.48       0.01
C       6.25       4.81      -2.06
O       4.97       4.95      -1.96
C       6.81       3.76      -2.96
O       4.86       8.31      -1.34
C       4.14       9.29      -1.84
O       3.53       7.25       1.34
C       2.74       8.17       1.84
O       5.75       4.49       1.40
O       6.79       6.40       1.96
O       7.07       5.55      -1.41
C       6.65       5.12       2.07
C       7.55       4.34       2.96
