22

Pr       4.64       3.96       4.16
Pr       5.09       3.80       8.25
C       4.99       2.04       2.06
C       4.84       6.71       6.26
C       2.41       3.50       7.03
C       5.13       0.99       1.02
C       4.74       5.72      10.35
C       4.90       1.05       6.15
C       7.33       4.25       5.38
C       4.61       6.76      11.39
O       3.84       2.50       2.29
O       4.66       6.17       5.14
O       3.34       3.96       6.30
O       6.02       2.46       2.65
O       5.12       6.14       7.33
O       2.62       3.00       8.14
O       5.90       5.26      10.12
O       5.08       1.59       7.27
O       6.39       3.79       6.11
O       3.71       5.29       9.76
O       4.61       1.62       5.08
O       7.11       4.75       4.27
