32

Ti      12.28      16.10       7.66
Ti       8.87      16.14       7.39
Ti       5.47      16.14       7.60
Ti      15.68      16.11       7.39
O      10.68      16.12       8.30
O      11.87      14.51       6.42
O       9.57      17.68       6.27
O       9.64      14.78       6.08
O      11.82      17.47       6.21
C      14.17      14.12       9.07
O      14.08      16.12       6.75
O      13.08      14.78       8.97
O       8.38      17.52       8.82
O       8.46      14.57       8.64
C      14.10      18.04       9.14
O      12.94      17.67       8.77
O      17.48      16.13       8.29
O       5.08      14.51       6.42
O      16.31      17.73       6.29
O      16.47      14.84       6.02
O       4.95      17.41       6.09
O       7.28      16.13       6.70
O       6.24      14.85       8.97
O      15.18      17.40       8.89
O      15.29      14.46       8.56
O       6.13      17.79       8.63
C      17.56      14.18       5.91
C      17.47      18.07       5.89
C      10.74      14.15       5.94
C       7.33      14.21       9.11
C       7.28      18.15       9.04
C      10.73      18.08       5.94
