18

C      18.63      17.01       3.91
C      18.63      16.60       2.48
C      17.42      17.22       4.58
O      22.19      17.86       5.90
H      18.63      18.24       7.42
C      16.13      18.05       6.56
C      19.82      17.23       4.56
O      19.74      16.45       1.92
H      20.64      17.08       4.14
O      17.51      16.45       1.92
O      21.07      18.51       7.73
C      17.42      17.71       5.89
C      21.12      18.05       6.56
H      16.62      17.08       4.14
C      19.84      17.71       5.89
O      16.19      18.51       7.73
C      18.61      17.93       6.54
O      15.07      17.86       5.90
