18

C      18.63      13.64       0.38
C      17.42      11.43       0.49
C      21.12       9.31       0.38
O      17.51      14.22       0.33
H      16.62      11.92       0.49
C      18.63      12.15       0.47
H      20.64      11.92       0.49
C      16.13       9.31       0.38
C      19.84      10.06       0.47
O      16.19       8.06       0.33
O      19.74      14.22       0.33
C      17.42      10.06       0.47
O      22.19       9.99       0.33
O      21.07       8.06       0.33
C      19.82      11.44       0.47
C      18.61       9.37       0.49
O      15.07       9.99       0.33
H      18.63       8.43       0.49
