50

C       5.63       7.96       9.14
C       6.49       9.18       9.14
O      17.63      22.94       9.14
C      11.82      16.72      10.35
O       5.35       7.57       7.97
C      12.63      17.87      10.35
O       5.35       7.57      10.30
C      11.42      16.15       9.14
C      11.42      16.15      11.56
C      10.61      15.01      11.56
C      10.21      14.44      10.35
C      10.61      15.01       9.14
O       8.97      12.71       6.90
O       8.98      12.70      11.38
C      10.20      14.44       7.93
C       9.39      13.30       7.93
C       9.40      13.29      10.35
C      11.41      16.16       6.71
O      13.05      18.46      11.38
O      13.04      18.46       6.90
C      10.60      15.01       6.71
C      13.92      19.70       9.14
C       7.70      10.89      10.35
C       6.89       9.75      10.35
C       6.89       9.75       7.93
C       7.70      10.90       7.93
C       8.10      11.47       9.14
C      14.33      20.27      10.35
C      15.13      21.41      10.35
C      12.63      17.87       7.93
C      11.82      16.73       7.93
C      16.40      23.20       9.14
C      15.54      21.99       9.14
H       6.57       9.28      11.34
H      11.74      16.62       5.73
H      10.27      14.55       5.73
C      14.32      20.27       7.93
H      15.46      21.88       6.94
H       8.03      11.36       6.94
H       6.56       9.29       6.94
H      10.28      14.54      12.55
C      15.13      21.42       7.93
H      13.99      19.81       6.94
H       8.03      11.36      11.34
H      11.75      16.62      12.55
H      14.00      19.80      11.34
H      15.46      21.88      11.34
N      13.03      18.44       9.14
N       8.99      12.72       9.14
O      15.73      24.28       9.14
