55

N      22.68      12.73      13.00
N      15.17      17.79      16.18
N      22.91      12.51      17.13
N      13.92      16.86      13.14
N      12.80      15.43      18.55
N      21.99      15.91      16.18
N      18.57      21.18      21.45
C      21.07      14.35      14.62
C      16.09      19.35      14.62
C      16.09      14.36      19.61
C      21.08      19.34      19.61
C      19.47      17.74      18.00
C      17.69      15.96      18.01
C      18.58      16.85      17.12
C      17.90      19.13      16.20
C      17.09      19.93      15.39
C      15.87      17.97      14.64
C      16.68      17.17      15.45
C      18.89      18.64      18.90
C      19.70      19.45      19.71
C      21.68      18.45      18.72
C      20.87      17.65      17.91
C      18.28      15.06      18.90
C      17.47      14.26      19.71
C      15.49      15.25      18.72
C      16.30      16.06      17.92
C      20.37      15.06      16.81
C      21.17      14.25      16.00
C      20.18      15.24      14.02
C      19.38      16.05      14.83
C      19.47      15.96      16.23
C      17.69      17.74      16.23
C      21.96      13.45      13.75
C      15.21      20.25      13.74
C      15.21      13.46      20.51
C      21.99      20.22      20.49
C      15.65      17.05      16.93
C      22.16      13.26      16.65
C      14.76      17.34      13.79
C      13.96      15.35      18.63
C      21.51      16.66      16.92
C      19.06      20.44      20.70
H      20.44      14.99      17.95
H      20.11      15.32      12.89
H      18.64      16.78      14.35
H      19.41      14.99      18.98
H      17.94      13.52      20.44
H      16.51      16.04      15.47
H      17.26      21.06      15.36
H      18.72      19.59      16.83
H      17.75      18.71      18.98
H      22.81      18.38      18.64
N      14.47      12.75      21.23
N      22.70      20.96      21.22
N      14.47      20.97      13.01
