18

O       1.84      15.52       2.54
O      -1.81      10.88       0.62
O      -3.54      11.88      -0.31
C       1.37      14.41       2.21
C      -0.50      15.61       1.09
C      -1.76      15.61       0.47
C      -2.43      16.93       0.23
C       0.10      14.41       1.43
C      -2.43      11.89       0.23
O       1.84      13.29       2.54
O      -1.81      17.94       0.62
O      -3.54      16.94      -0.31
H      -0.06      16.43       1.27
H      -3.26      14.41      -0.22
C      -0.50      13.21       1.09
C      -1.76      13.20       0.47
H      -0.06      12.39       1.27
C      -2.40      14.41       0.18
