18

C       2.43       2.28       9.84
C       0.50       6.00      10.69
O      -1.84       5.92      12.14
O       1.81       1.27      10.22
O       3.54       2.27       9.30
C       1.76       6.01      10.08
C       2.43       7.32       9.84
O      -1.84       3.69      12.14
O       1.81       8.33      10.22
O       3.54       7.33       9.30
C      -1.37       4.80      11.82
C      -0.10       4.80      11.03
H       0.06       2.78      10.87
H       3.26       4.80       9.38
C       2.40       4.80       9.78
H       0.06       6.82      10.87
C       0.50       3.60      10.69
C       1.76       3.60      10.08
