18

O       3.37      16.94       9.91
C       7.02      14.41       8.18
C       8.29      14.41       7.39
C       6.42      13.21       8.52
C       5.16      13.20       9.13
C       4.49      11.89       9.37
C       4.52      14.41       9.43
O       8.76      15.52       7.07
O       5.11      10.88       8.99
H       6.86      12.39       8.34
C       4.49      16.93       9.37
O       3.37      11.88       9.91
H       6.86      16.43       8.34
H       3.66      14.41       9.83
C       6.42      15.61       8.52
C       5.16      15.61       9.13
O       8.76      13.29       7.07
O       5.11      17.94       8.99
