16

C      28.89      20.73      14.66
C      26.46      21.87      15.46
C      26.46      20.73      14.66
C      27.67      18.94      13.39
C      28.89      21.87      15.46
C      27.67      23.67      16.73
C      27.67      20.16      14.25
C      27.67      22.44      15.87
O      28.81      18.47      13.06
O      26.53      24.14      17.07
O      26.53      18.47      13.06
O      28.81      24.14      17.07
H      29.82      20.28      14.34
H      25.52      22.33      15.79
H      25.52      20.28      14.34
H      29.82      22.33      15.79
