28

C       8.90       6.34       8.73
C      10.27       6.15       9.14
H      12.64       1.96       5.02
C      11.08       5.31       8.47
H      11.83       0.84       3.20
C      10.61       4.57       7.33
H       9.59       1.14       2.53
O      13.79       3.96       6.30
H       8.22       2.55       3.67
O      13.07       3.00       8.14
H       7.54       5.80       7.39
O       6.39       3.79       6.11
H       8.35       6.92       9.21
O       7.11       4.75       4.27
H      10.59       6.61       9.88
H      11.96       5.21       8.74
C      12.85       3.50       7.03
C      11.44       3.68       6.60
C      10.94       2.99       5.50
C      11.76       2.09       4.76
C      11.28       1.42       3.68
C       9.92       1.60       3.27
C       9.11       2.44       3.95
C       9.57       3.18       5.08
C       7.33       4.25       5.38
C       8.74       4.07       5.81
C       9.24       4.76       6.92
C       8.42       5.67       7.65
