74

C      13.68       3.21      20.21
C      14.83       4.70      18.68
C      14.82       3.54      19.45
C      13.77       3.18       9.92
H      13.96      11.45      16.27
C      15.06       4.72      11.27
H      14.06      11.44      13.82
H      14.09       8.03      10.44
H      13.79       4.64      13.82
H      13.68       4.64      16.26
C      14.98       3.55      10.52
H      13.71       8.05      19.65
H      12.07      11.13      11.96
H      12.13      13.21      10.57
O      13.08      14.78       8.97
O      12.56       1.62      21.54
O      13.06      14.79      21.21
H      11.71       3.70       9.59
O      12.50       1.55       8.77
H      11.86       5.83      10.90
H      11.99      13.24      19.62
H      11.83      11.15      18.25
H      11.74       5.91      19.46
H      11.69       3.79      20.79
O      15.31      14.52      21.32
O      14.75       1.28       8.89
O      15.29      14.46       8.56
O      14.75       1.28      21.07
H      16.06      10.16      10.66
H      16.13      12.28       9.32
H      15.85       2.90      10.39
H      16.00       5.00      11.75
H      16.07      12.31      20.58
H      15.90      10.19      19.27
H      15.68       2.87      19.47
H      15.71       4.95      18.09
C      14.14      14.16      20.96
C      13.93      10.50      15.72
C      13.84       8.04      15.76
C      13.79       9.27      17.88
C      13.84       9.28      16.47
C      13.74       8.05      18.56
C      14.04      12.90      20.17
C      12.75      11.40      18.77
C      12.84      12.57      19.53
C      14.17      14.12       9.07
C      13.98      10.50      14.36
C      13.91       8.04      14.33
C      14.02       9.26      12.20
C      13.96       9.28      13.61
C      14.05       8.03      11.52
C      14.06      10.51      11.40
C      13.67       1.92       9.14
C      13.82       5.58      14.36
C      13.99       6.81      12.20
C      13.92       6.80      13.62
C      14.13      12.87       9.87
C      12.96      11.38      11.38
C      12.99      12.54      10.61
C      13.66       1.95      21.00
C      13.76       5.58      15.72
C      13.75       6.82      17.89
C      13.80       6.80      16.47
C      12.57       4.06      20.21
C      12.60       5.24      19.46
C      13.72       5.57      18.68
C      12.64       4.00      10.06
C      12.73       5.18      10.79
C      13.94       5.55      11.41
C      15.14      12.04      20.07
C      15.04      10.86      19.34
C      13.85      10.53      18.67
C      15.24      12.01       9.89
C      15.20      10.83      10.64
