156

C      18.63      17.01       3.91
C      18.63      16.60       2.48
C      17.42      17.22       4.58
C      25.26      13.18       9.32
C      18.63       9.36      14.74
C      12.00      13.18       9.32
C      25.26       8.32       5.89
C      18.63       4.50      11.30
C      12.00       8.32       5.89
C      18.63      12.15       0.47
C      24.05       6.23       5.89
C      17.42       3.80       9.32
C      13.21       7.62       3.91
C      19.84      10.06       0.47
C      17.42      17.71       5.89
C      24.05      15.28       9.32
C      19.84      11.45      14.74
C      13.21      13.88      11.30
C      17.42      11.45      14.74
C      13.21       6.23       5.89
C      17.42      10.06       0.47
C      24.05       7.62       3.91
C      19.84       3.80       9.32
C      19.84      17.71       5.89
C      24.05      13.88      11.30
C      13.21      15.28       9.32
C      26.19      12.24       8.65
C      18.63       7.87      14.83
C      11.06      12.24       8.65
C      26.19       9.27       6.56
C      18.63       4.90      12.73
C      11.06       9.27       6.56
C      18.63      13.64       0.38
C      23.69       4.95       6.56
C      16.13       3.46       8.65
C      13.56       7.83       2.48
C      21.12       9.31       0.38
C      16.13      18.05       6.56
C      23.69      16.56       8.65
C      21.12      12.20      14.83
C      13.56      13.68      12.73
C      16.13      12.20      14.83
C      13.56       4.95       6.56
C      16.13       9.31       0.38
C      23.69       7.83       2.48
C      21.12       3.46       8.65
C      21.12      18.05       6.56
C      23.69      13.68      12.73
C      13.56      16.56       8.65
C      24.83      14.34       8.65
C      19.82      10.04      14.72
C      12.41      12.95      10.62
C      24.83       7.15       6.54
C      17.42       4.27      10.62
C      12.41       8.54       4.58
C      19.82      11.44       0.47
C      23.62       6.47       4.58
C      18.61       3.58       8.67
C      13.60       6.47       4.58
C      18.61       9.37       0.49
C      18.61      17.93       6.54
C      23.62      15.03      10.63
C      18.61      12.14      14.72
C      13.60      15.03      10.63
C      17.42      10.06      14.71
C      12.41       7.16       6.52
C      17.42      11.43       0.49
C      24.83       8.55       4.56
C      19.82       4.26      10.63
C      19.82      17.23       4.56
C      24.83      12.94      10.63
C      12.41      14.32       8.67
Cu       8.01       0.00       0.00
Cu       9.31      11.51       6.54
Cu      10.62       0.00       0.00
Cu       9.31      10.00       8.67
Cu      31.95      18.44       6.54
Cu      14.62       2.31       6.54
Cu      23.94      12.31      15.21
Cu      22.63       6.94       0.00
Cu      23.94       3.07       8.67
Cu      22.63      19.20       8.67
Cu      22.63      14.57      15.21
Cu      23.94       9.20       0.00
H      16.62      17.08       4.14
H      25.11      14.50       7.79
H      20.64       9.59      14.72
H      12.15      12.17      11.07
H      25.11       7.01       7.42
H      16.62       4.43      11.07
H      12.15       9.33       4.14
H      20.64      11.92       0.49
H      23.10       5.85       4.14
H      18.63       3.27       7.79
H      14.16       5.85       4.14
H      18.63       8.43       0.49
H      18.63      18.24       7.42
H      23.10      15.66      11.07
H      18.63      13.08      14.72
H      14.16      15.66      11.07
H      16.62       9.59      14.72
H      12.15       7.01       7.42
H      16.62      11.92       0.49
H      25.11       9.33       4.14
H      20.64       4.43      11.07
H      20.64      17.08       4.14
H      25.11      12.17      11.07
H      12.15      14.50       7.79
O      17.51      16.45       1.92
O      26.56      12.52       7.48
O      19.74       7.29      14.87
O      10.69      11.23       9.31
O      26.56       8.99       7.73
O      17.51       5.05      13.29
O      10.69      10.28       5.90
O      19.74      14.22       0.33
O      23.00       4.12       5.90
O      16.19       3.00       7.48
O      14.25       6.94       1.92
O      21.07       8.06       0.33
O      16.19      18.51       7.73
O      23.00      17.39       9.31
O      21.07      13.45      14.87
O      14.25      14.57      13.29
O      15.07      11.52      14.87
O      13.13       4.76       7.73
O      15.07       9.99       0.33
O      24.12       8.87       1.92
O      22.19       3.65       9.31
O      22.19      17.86       5.90
O      24.12      12.64      13.29
O      13.13      16.74       7.48
O      19.74       5.05      13.29
O      10.69       8.99       7.73
O      17.51      14.22       0.33
O      26.56      10.28       5.90
O      10.69      12.52       7.48
O      19.74      16.45       1.92
O      26.56      11.23       9.31
O      17.51       7.29      14.87
O      14.25      17.39       9.31
O      21.07      18.51       7.73
O      23.00      14.57      13.29
O      16.19      13.45      14.87
O      21.07       3.00       7.48
O      14.25       4.12       5.90
O      16.19       8.06       0.33
O      23.00       6.94       1.92
O      22.19       9.99       0.33
O      24.12      16.74       7.48
O      22.19      11.52      14.87
O      13.13      12.64      13.29
O      15.07      17.86       5.90
O      15.07       3.65       9.31
O      13.13       8.87       1.92
O      24.12       4.76       7.73
