184

Cu       3.46      12.92       3.32
Cu       3.46      15.89       6.29
Cu       3.46       6.29      12.92
Cu       3.46       3.32      15.89
Cu       3.46       6.29      15.89
Cu       3.46       3.32      12.92
Cu       3.46      12.92       6.29
Cu       3.46      15.89       3.32
Cu       2.43      10.18      10.18
Cu       2.43      18.63      18.63
Cu       2.43      18.63      10.18
Cu       2.43      10.18      18.63
Cu       4.48       9.03       0.58
Cu       4.48       0.58       9.03
Cu       4.48       0.58       0.58
Cu       4.48       9.03       9.03
H       0.06      10.87       6.82
H       0.06      17.94       2.78
H       0.06       2.78      10.87
H       0.06       6.82      17.94
H       6.86       8.34      16.43
H       6.86       1.27      12.39
H       6.86      16.43       1.27
H       6.86      12.39       8.34
H       6.86       8.34      12.39
H       6.86       1.27      16.43
H       6.86      16.43       8.34
H       6.86      12.39       1.27
H       0.06      10.87       2.78
H       0.06      17.94       6.82
H       0.06       2.78      17.94
H       0.06       6.82      10.87
H       0.38      11.57      11.57
H       6.71      10.74      10.74
H       0.38      17.24      17.24
H       6.71      18.08      18.08
H       0.38      17.24      11.57
H       6.71      18.08      10.74
H       0.38      11.57      17.24
H       6.71      10.74      18.08
H       6.54       7.64       1.97
H       0.21       8.47       1.13
H       6.54       1.97       7.64
H       0.21       1.13       8.47
H       6.54       1.97       1.97
H       0.21       1.13       1.13
H       6.54       7.64       7.64
H       0.21       8.47       8.47
H       3.26       9.38       4.80
H       3.26       0.22       4.80
H       3.26       4.80       9.38
H       3.26       4.80       0.22
H       3.66       9.83      14.41
H       3.66      18.99      14.41
H       3.66      14.41      18.99
H       3.66      14.41       9.83
C       0.50      10.69       6.00
C       1.76      10.08       6.01
C       2.43       9.84       7.32
C       0.50      18.12       3.60
C       1.76      18.74       3.60
C       2.43      18.98       2.28
C       0.50       3.60      10.69
C       1.76       3.60      10.08
C       2.43       2.28       9.84
C       0.50       6.00      18.12
C       1.76       6.01      18.74
C       2.43       7.32      18.98
C       6.42       8.52      15.61
C       5.16       9.13      15.61
C       4.49       9.37      16.93
C       6.42       1.09      13.21
C       5.16       0.47      13.20
C       4.49       0.23      11.89
C       6.42      15.61       1.09
C       5.16      15.61       0.47
C       4.49      16.93       0.23
C       6.42      13.21       8.52
C       5.16      13.20       9.13
C       4.49      11.89       9.37
C       6.42       8.52      13.21
C       5.16       9.13      13.20
C       4.49       9.37      11.89
C       6.42       1.09      15.61
C       5.16       0.47      15.61
C       4.49       0.23      16.93
C       6.42      15.61       8.52
C       5.16      15.61       9.13
C       4.49      16.93       9.37
C       6.42      13.21       1.09
C       5.16      13.20       0.47
C       4.49      11.89       0.23
C       0.50      10.69       3.60
C       1.76      10.08       3.60
C       2.43       9.84       2.28
C       0.50      18.12       6.00
C       1.76      18.74       6.01
C       2.43      18.98       7.32
C       0.50       3.60      18.12
C       1.76       3.60      18.74
C       2.43       2.28      18.98
C       0.50       6.00      10.69
C       1.76       6.01      10.08
C       2.43       7.32       9.84
C       5.55      11.82       4.80
C       6.82      11.03       4.80
C       2.40       9.78       4.80
C       5.55      17.00       4.80
C       6.82      17.78       4.80
C       2.40      19.03       4.80
C       5.55       4.80      11.82
C       6.82       4.80      11.03
C       2.40       4.80       9.78
C       5.55       4.80      17.00
C       6.82       4.80      17.78
C       2.40       4.80      19.03
C       1.37       7.39      14.41
C       0.10       8.18      14.41
C       4.52       9.43      14.41
C       1.37       2.21      14.41
C       0.10       1.43      14.41
C       4.52       0.18      14.41
C       1.37      14.41       2.21
C       0.10      14.41       1.43
C       4.52      14.41       0.18
C       1.37      14.41       7.39
C       0.10      14.41       8.18
C       4.52      14.41       9.43
O       5.07      12.14       3.69
O       1.81      10.22       8.33
O       3.54       9.30       7.33
O       5.07      16.67       5.92
O       1.81      18.59       1.27
O       3.54       0.31       2.27
O       5.07       5.92      12.14
O       1.81       1.27      10.22
O       3.54       2.27       9.30
O       5.07       3.69      16.67
O       1.81       8.33      18.59
O       3.54       7.33       0.31
O       1.84       7.07      13.29
O       5.11       8.99      17.94
O       3.37       9.91      16.94
O       1.84       2.54      15.52
O       5.11       0.62      10.88
O       3.37      18.90      11.88
O       1.84      13.29       2.54
O       5.11      17.94       0.62
O       3.37      16.94      18.90
O       1.84      15.52       7.07
O       5.11      10.88       8.99
O       3.37      11.88       9.91
O       1.84       7.07      15.52
O       5.11       8.99      10.88
O       3.37       9.91      11.88
O       1.84       2.54      13.29
O       5.11       0.62      17.94
O       3.37      18.90      16.94
O       1.84      13.29       7.07
O       5.11      17.94       8.99
O       3.37      16.94       9.91
O       1.84      15.52       2.54
O       5.11      10.88       0.62
O       3.37      11.88      18.90
O       5.07      12.14       5.92
O       1.81      10.22       1.27
O       3.54       9.30       2.27
O       5.07      16.67       3.69
O       1.81      18.59       8.33
O       3.54       0.31       7.33
O       5.07       5.92      16.67
O       1.81       1.27      18.59
O       3.54       2.27       0.31
O       5.07       3.69      12.14
O       1.81       8.33      10.22
O       3.54       7.33       9.30
O       0.59      10.97      10.97
O       0.59      17.85      17.85
O       0.59      17.85      10.97
O       0.59      10.97      17.85
O       6.32       8.24       1.36
O       6.32       1.36       8.24
O       6.32       1.36       1.36
O       6.32       8.24       8.24
