172

Li       6.63       9.17       1.62
Li       3.12       3.57       6.43
Li       0.39       2.03      14.47
Li       3.90       7.64       9.66
Y       4.47      11.20      16.04
Y       0.96       5.59       8.09
Y       2.55       0.01       0.05
Y       6.06       5.61       8.00
H       2.27       2.77      11.10
H       5.78       8.37      13.04
H       4.75       8.44       4.99
H       1.24       2.83       3.05
H       2.86       1.24      12.71
H       6.37       6.84      11.42
H       4.16       9.97       3.38
H       0.65       4.37       4.67
H      -0.80      10.14      12.65
H       5.86       4.53      11.48
H       7.82       1.07       3.44
H       1.16       6.67       4.61
H       6.45       2.98      13.07
H      -0.21       8.58      11.07
H       0.57       8.23       3.02
H       7.23       2.63       5.02
H       0.23       4.18      15.87
H       3.74       9.79       8.27
H       6.79       7.02       0.22
H       3.28       1.42       7.82
H       6.48       4.74       0.32
H      -0.19      10.34       7.73
H       0.54       6.47      15.77
H       7.21       0.87       8.37
H       4.01       6.77       1.94
H       0.50       1.17       6.11
H       3.01       4.43      14.15
H       6.52      10.04       9.98
H       3.56       6.68      14.04
H       0.05       1.08      10.10
H       3.46       4.52       2.05
H       6.97      10.13       6.00
H       0.86       8.55      13.71
H       7.52       2.95      10.43
H       6.16       2.66       2.39
H      -0.50       8.26       5.66
H       2.29       8.65      13.88
H       8.95       3.05      10.25
H       4.73       2.56       2.21
H      -1.93       8.16       5.84
H       7.69       8.25       3.76
H       4.18       2.64       4.28
H      -0.67       2.96      12.33
H       2.84       8.56      11.81
H       6.69       7.27       3.25
H       3.18       1.67       4.80
H       0.33       3.93      12.84
H       3.84       9.54      11.30
H       1.14       6.44      12.80
H       7.80       0.84      11.34
H       5.88       4.76       3.29
H      -0.78      10.37       4.76
H       0.89       5.85      11.56
H       7.55       0.25      12.57
H       6.13       5.36       4.53
H      -0.53      10.96       3.52
C       7.50       9.43      13.00
C       3.99       3.83      11.14
C      -0.48       1.77       3.09
C       3.03       7.38       4.95
C       5.12       0.93      14.09
C      -1.54       6.53      10.05
C       1.90      10.28       2.00
C       8.56       4.67       6.05
C       3.11       2.82      11.50
C       6.62       8.42      12.64
C       3.91       8.39       4.59
C       0.40       2.78       3.46
C       8.41       4.22       0.04
C       1.75       9.83       8.00
C      -1.39       6.99      16.05
C       5.27       1.38       8.09
C       3.47       1.89      12.46
C       6.98       7.50      11.68
C       3.55       9.31       3.63
C       0.04       3.71       4.41
C       3.82       6.95      16.03
C       0.31       1.34       8.11
C       3.20       4.26       0.07
C       6.71       9.86       7.98
C      -1.41       9.47      12.41
C       5.26       3.87      11.73
C       8.43       1.73       3.68
C       1.76       7.34       4.36
C       7.11      10.44      14.02
C       3.60       4.84      10.11
C      -0.09       0.77       2.07
C       3.42       6.37       5.98
C       5.61       2.94      12.68
C      -1.05       8.54      11.46
C       1.41       8.27       3.42
C       8.07       2.67       4.63
C       4.73       1.93      13.04
C      -1.93       7.54      11.09
C       2.29       9.27       3.05
C       8.95       3.67       5.00
C       8.19       2.74       0.08
C       1.53       8.34       7.96
C      -1.17       8.47      16.01
C       5.49       2.86       8.13
C      -0.50       4.75      15.96
C       3.01      10.36       8.18
C       7.52       6.45       0.14
C       4.01       0.85       7.91
C       7.33       5.08       0.19
C       0.67      10.69       7.86
C      -0.31       6.12      15.90
C       6.35       0.52       8.23
C       4.11       8.41      15.98
C       0.60       2.81       8.16
C       2.91       2.79       0.11
C       6.42       8.40       7.94
C       3.81       6.30       1.16
C       0.30       0.70       6.88
C       3.21       4.90      14.93
C       6.72      10.51       9.21
C       3.53       6.25      14.86
C       0.02       0.65       9.27
C       3.49       4.96       1.23
C       7.00      10.56       6.82
O       6.35       0.80      14.34
O      -0.31       6.40       9.80
O       0.67      10.41       1.75
O       7.33       4.80       6.29
O       2.80      10.93       1.42
O      -0.71       5.33       6.62
O       4.22       0.28      14.67
O       7.73       5.88       9.47
O       4.95       8.91       0.69
O       1.44       3.30       7.36
O       2.07       2.30      15.40
O       5.58       7.90       8.74
O       3.50       9.15      15.17
O      -0.01       3.55       8.97
O       3.52       2.06       0.92
O       7.03       7.66       7.12
O       9.01       1.96      15.59
O       2.35       7.57       8.55
O      -1.99       9.24       0.50
O       4.67       3.64       7.55
O       5.92      10.46      14.42
O       2.41       4.86       9.71
O       1.10       0.75       1.67
O       4.61       6.35       6.38
O       7.20       2.26       0.67
O       0.53       7.86       7.38
O      -0.17       8.95      15.43
O       6.49       3.35       8.71
O       6.05      11.14       1.67
O       2.54       5.54       6.38
O       0.97       0.06      14.43
O       4.48       5.67       9.71
O       1.63       8.41      13.27
O       8.29       2.81      10.87
O       5.39       2.80       2.82
O      -1.27       8.40       5.23
O       6.98       8.14       3.17
O       3.47       2.54       4.88
O       0.04       3.06      12.92
O       3.55       8.67      11.21
O       1.06       5.61      12.44
O       7.73       0.01      11.70
O       5.96       5.59       3.65
O      -0.70      11.20       4.39
