286

Ce       5.23       6.48       0.01
Ce       9.29       1.41      18.25
H       7.05       9.40      29.04
H       8.03       9.94      22.08
H       2.98       3.12      29.74
H       8.86       0.75      23.33
H       5.72       8.68      30.34
H       5.87       0.13      27.05
H       3.33       2.92      25.35
H       5.78       9.35      25.95
H      11.41       8.63      22.32
H       4.15       4.01      27.78
H      10.14       1.48      27.38
H       4.98       7.87      32.55
H       0.41       1.67      22.94
H       3.50       9.96      26.75
H       2.48       4.75      23.91
H       6.62       1.70      23.87
H       2.66       1.06      22.16
H       7.87       2.30      27.95
H       7.27       4.67      25.22
H       2.86       2.58      31.69
H       1.93       6.93      23.87
H       2.02       1.73      33.86
H       4.74       8.83      20.24
H       5.64       7.01      21.67
H       6.42       6.50      23.80
H       1.99       5.37       7.46
H       1.26       4.52      14.42
H       9.02       7.95       6.75
H      10.04       1.70      13.17
H       2.99       6.51       6.16
H      11.30       4.47       9.45
H       9.13       7.57      11.15
H       2.32       6.59      10.55
H       1.79       0.94      14.18
H       7.90       7.00       8.71
H       9.04       0.61       9.11
H       3.95       7.05       3.95
H      11.01      10.13      13.56
H       2.24       8.95       9.75
H       7.54       8.79      12.59
H       9.61       4.08      12.63
H      11.11       7.81      14.34
H       8.74       3.00       8.55
H       6.56       4.11      11.28
H       9.57       7.95       4.81
H       5.53       9.82      12.63
H      10.59       8.59       2.64
H       3.06       7.50      16.26
H       4.64       6.21      14.83
H       4.97       5.34      12.70
H       6.05       0.27      10.79
H       7.61       9.60       3.83
H       2.67       2.86      11.50
H       5.97       6.78       5.08
H       7.05       1.42      12.08
H       7.24       9.55       8.80
H       2.78       2.48       7.10
H       6.38       1.51       7.70
H       8.16       6.05       4.11
H       1.54       1.92       9.54
H       4.98       5.69       9.14
H       8.03       1.98      14.28
H       4.64       5.05       4.69
H       6.30       3.87       8.50
H       1.19       3.72       5.66
H       5.54       9.16       5.62
H       4.74       2.72       3.91
H       4.68       8.08       9.70
H       2.49       9.20       6.96
H       3.22       2.84      13.45
H       9.60       4.74       5.65
H       4.25       3.51      15.61
H       7.12       2.47       1.99
H       8.68       1.16       3.43
H       9.03       0.26       5.55
H      11.12       4.32      25.71
H       1.68       4.86      32.67
H       9.34       8.20      25.00
H       4.79       5.83      31.42
H       9.78       3.60      24.42
H       1.82       5.21      27.70
H       9.69       8.00      29.40
H       9.84       4.27      28.80
H       5.02       3.53      32.39
H      10.51       9.09      26.96
H       6.08       6.56      27.36
H       9.02       2.77      22.21
H       6.77       6.75      31.81
H       7.56       4.87      28.00
H       8.84       9.82      30.84
H       2.56       6.78      30.88
H       9.02       6.14      32.59
H       3.81       7.38      26.80
H       3.20       9.76      29.54
H       9.23       7.65      23.05
H       5.99       1.85      30.85
H       8.36       6.79      20.89
H       8.74       3.76      34.51
H       9.68       1.95      33.07
H      10.48       1.42      30.95
C       5.11       2.13      27.30
C       4.60       0.28      28.77
C       4.38       5.78      23.76
C       3.79       1.11      29.58
C       3.62       2.45      29.17
C       3.23       0.62      30.85
C       8.65       1.13      24.33
C       3.21       0.08      24.01
C       5.45       9.40      31.11
C       2.81       8.85      21.19
C       4.63       9.82      33.35
C       7.12       2.09      25.93
C       0.63       0.75      24.89
C       5.25       0.78      27.65
C       3.99       3.72      25.03
C       5.09       9.90      25.30
C       5.35       3.69      25.40
C       2.02       8.29      22.20
C       4.26       2.96      28.05
C       9.37       1.50      26.61
C       5.02       8.93      32.34
C       1.07       1.11      23.60
C       6.84       9.82      23.55
C       1.52       0.08      25.75
C       3.52       4.75      24.22
C       7.40       1.64      24.63
C       2.34       0.78      23.16
C       8.10       1.98      26.93
C       3.86       6.85      22.89
C       6.22       4.70      24.94
C       2.81       1.51      31.86
C       2.54       7.32      23.06
C       2.34       1.04      33.08
C       9.68       1.10      25.30
C       4.13       8.40      21.03
C       4.64       7.40      21.85
C       4.15       9.29      34.66
C       5.74       5.72      24.13
C       2.24       9.92      20.31
C       9.51       5.65       9.20
C      11.43       5.74       7.73
C       6.12       7.17      12.74
C      10.80       6.71       6.92
C       9.53       7.18       7.33
C      11.40       7.15       5.65
C       9.71       1.98      12.17
C      11.94       7.05      12.49
C       2.35       6.92       5.39
C       3.47       9.38      15.31
C       2.12       7.83       3.15
C       9.11       3.68      10.57
C      11.85       9.72      11.61
C      10.80       5.22       8.84
C       8.21       7.10      11.47
C       1.94       7.38      11.19
C       7.94       5.76      11.10
C       4.19      10.03      14.30
C       8.89       6.66       8.44
C       9.19       1.36       9.89
C       2.90       7.24       4.16
C      11.40       9.37      12.90
C       1.63       5.66      12.95
C      12.31       8.70      10.75
C       7.30       7.78      12.27
C       9.49       3.31      11.87
C      11.44       8.06      13.34
C       9.00       2.70       9.57
C       5.19       7.92      13.61
C       6.77       5.14      11.56
C      10.63       7.76       4.64
C       5.02       9.31      13.44
C      11.19       8.12       3.42
C       9.51       0.97      11.20
C       3.61       7.99      15.47
C       4.48       7.27      14.65
C       2.74       8.17       1.84
C       5.88       5.83      12.37
C       2.55      10.16      16.19
C       3.15       0.57       9.05
C       5.07       0.65      10.52
C      10.18       2.10       5.51
C       4.44       1.62      11.34
C       3.17       2.09      10.93
C       5.05       2.06      12.60
C       5.64       7.06       6.08
C       5.58       1.97       5.76
C       6.42       1.84      12.85
C       7.55       4.34       2.96
C       6.20       2.77      15.08
C       5.04       8.76       7.68
C       5.49       4.64       6.64
C       4.44       0.13       9.40
C       1.85       2.01       6.78
C       6.00       2.30       7.06
C       1.58       0.68       7.15
C       8.26       4.98       3.98
C       2.53       1.58       9.81
C       5.12       6.44       8.36
C       6.98       2.17      14.08
C       5.04       4.29       5.35
C       5.69       0.58       5.30
C       5.95       3.62       7.50
C       0.95       2.70       5.98
C       5.42       8.39       6.38
C       5.08       2.97       4.91
C       4.94       7.78       8.68
C       9.25       2.85       4.65
C       0.41       0.06       6.68
C       4.27       2.67      13.61
C       9.08       4.24       4.83
C       4.84       3.04      14.82
C       5.44       6.05       7.05
C       7.68       2.95       2.79
C       8.53       2.22       3.61
C       6.83       3.14      16.38
C       9.94       0.76       5.88
C       6.65       5.12       2.07
C      11.47       7.22      27.45
C      10.97       5.37      25.97
C       8.43       0.70      30.99
C      10.16       6.19      25.16
C       9.98       7.53      25.57
C       9.60       5.70      23.90
C       4.59       6.21      30.42
C       9.57       5.16      30.74
C       9.52       4.31      23.64
C       6.82       3.76      33.54
C       8.66       4.73      21.42
C       3.06       7.17      28.82
C       6.99       5.83      29.86
C      11.61       5.86      27.09
C      10.35       8.80      29.72
C       9.16       4.82      29.44
C      11.71       8.77      29.35
C       6.04       3.20      32.52
C      10.63       8.04      26.69
C       5.31       6.59      28.13
C       9.07       3.84      22.42
C       7.43       6.19      31.15
C      10.90       4.74      31.20
C       7.88       5.16      29.00
C       9.88       9.83      30.52
C       3.34       6.72      30.12
C       8.70       5.87      31.59
C       4.04       7.06      27.82
C       7.90       1.77      31.85
C      12.57       9.78      29.81
C       9.18       6.58      22.88
C       6.58       2.24      31.67
C       8.69       6.11      21.67
C       5.62       6.19      29.45
C       8.15       3.32      33.71
C       8.67       2.33      32.89
C       8.14       4.19      20.12
C       9.79       0.64      30.62
C       6.26       4.81      34.43
N       5.85       2.65      26.22
N       8.85       5.05      10.28
N       4.78      10.13       7.97
N       1.79       7.73      28.53
O       4.86       0.13      22.30
O       0.74       0.53      19.67
O       7.61       9.12      24.19
O       4.86       8.31      35.15
O       3.11       9.77      35.14
O      11.38      10.04      20.20
O      11.52       5.46      14.19
O      12.04       9.55      16.83
O       2.15       4.75      12.30
O       3.53       7.25       1.34
O       2.51       9.29       1.35
O       0.42       1.27      16.30
O       5.16       0.38       4.05
O       5.75       4.49       1.40
O       8.50       9.83       5.94
O       7.70       2.29      16.84
O       6.50       4.22      16.90
O       6.79       6.40       1.96
O      11.22       5.21      32.44
O       7.07       5.55      35.09
O       1.26       4.04      30.55
O       8.76       3.13      19.67
O       7.17       4.75      19.60
O       4.98       4.95      34.54
