312

Ti      12.28      16.10       7.66
Ti       8.77       0.02      22.43
Ti      12.60      16.09      22.72
Ti       8.43       0.02       7.39
Ti       5.04       0.02       7.60
Ti       2.41      16.11      22.40
Ti       5.37       0.02      22.68
Ti       2.08      16.11       7.39
H      10.58      11.46       1.19
H      10.65       8.08       4.61
H      10.61      11.45      28.83
H      10.37       8.01      25.49
H      10.40       4.64      28.91
H      10.36       4.65       1.26
H      13.96      11.45      16.27
H      13.71       8.05      19.65
H       0.47      11.44      13.82
H       0.50       8.03      10.44
H       0.20       4.64      13.82
H      13.68       4.64      16.26
H      12.07      11.13      11.96
H      12.13      13.21      10.57
H       9.20      10.27      10.75
H       9.31      12.40       9.44
H      12.71      12.33       5.65
H       8.68      13.23       4.48
H       8.61      11.16       3.09
H      12.63      10.21       4.33
H      12.44       2.93       4.61
H      12.55       5.02       3.24
H       8.45       5.88       4.24
H       8.33       3.75       5.55
H       8.93       2.91      10.51
H      11.86       5.83      10.90
H      11.71       3.70       9.59
H       9.01       4.98      11.93
H       9.33      12.40      20.50
H      11.99      13.24      19.62
H       9.16      10.27      19.20
H      11.83      11.15      18.25
H      11.74       5.91      19.46
H      11.69       3.79      20.79
H       8.92       2.95      19.50
H       8.94       5.03      18.11
H      12.35       2.83      25.71
H      12.40       4.94      27.06
H       8.34       3.73      24.45
H       8.41       5.87      25.74
H       8.60      13.19      25.47
H      12.66      12.24      24.45
H      12.51      10.14      25.79
H       8.47      11.13      26.88
H       3.84      11.47       1.18
H       3.82       8.07       4.58
H       3.89      11.47      28.83
H       3.59       8.06      25.46
H       3.53       4.67      28.87
H       3.49       4.66       1.22
H       7.17      11.50      16.26
H       6.97       8.10      19.64
H       7.21      11.50      13.81
H       7.13       8.10      10.42
H       6.90       4.69      13.80
H       6.85       4.69      16.25
H       5.15      11.16      11.87
H       5.24      13.26      10.50
H       2.47      10.16      10.66
H       2.54      12.28       9.32
H       5.92      12.33       5.64
H       1.90      13.26       4.44
H       1.82      11.17       3.06
H       5.83      10.21       4.32
H       5.56       2.86       4.48
H       5.68       4.96       3.12
H       1.66       5.94       4.30
H       1.52       3.81       5.59
H       2.26       2.90      10.39
H       5.03       6.00      10.65
H       4.92       3.89       9.32
H       2.40       5.00      11.75
H       2.47      12.31      20.58
H       5.21      13.26      19.65
H       2.30      10.19      19.27
H       5.04      11.17      18.29
H       4.93       5.93      19.40
H       4.89       3.81      20.72
H       2.08       2.87      19.47
H       2.11       4.95      18.09
H       5.52       2.88      25.62
H       5.57       4.96      27.00
H       1.51       3.80      24.38
H       1.58       5.91      25.71
H       1.87      13.26      25.52
H       5.92      12.30      24.46
H       5.77      10.18      25.78
H       1.73      11.18      26.91
C      10.74      14.15       5.94
C      10.50      10.51       0.65
C      10.44       8.05       0.71
C      10.57       9.29       2.83
C      10.49       9.30       1.41
C      10.60       8.07       3.51
C      11.82      12.05       5.10
C      11.77      10.87       4.36
C       9.51      11.41       3.65
C       9.54      12.57       4.42
C      10.74      14.09      24.09
C      10.59      10.51      29.39
C      10.53       8.05      29.38
C      10.44       9.25      27.24
C      10.51       9.28      28.66
C      10.40       8.02      26.58
C      10.30       1.89      24.24
C      10.47       5.59      29.44
C      10.43       6.80      27.27
C      10.49       6.80      28.68
C      10.34       3.15      25.01
C      10.41       5.54      26.49
C      10.64      12.84      24.88
C      11.74      11.98      24.97
C      11.66      10.81      25.73
C      10.49      10.50      26.43
C       9.38      11.37      26.34
C       9.45      12.52      25.56
C      10.30       1.95       5.94
C      10.38       5.59       0.71
C      10.54       6.84       2.85
C      10.47       6.81       1.44
C      10.38       3.22       5.16
C       9.25       4.05       5.05
C       9.32       5.23       4.32
C      10.51       5.59       3.65
C      11.63       4.75       3.76
C      11.57       3.58       4.52
C      10.70      12.90       5.14
C      10.62      10.54       3.61
C       9.23       4.01      25.01
C       9.27       5.20      25.73
C      11.51       4.68      26.48
C      11.49       3.50      25.74
C       0.55      14.16      20.96
C      13.93      10.50      15.72
C      13.84       8.04      15.76
C      13.79       9.27      17.88
C      13.84       9.28      16.47
C      13.74       8.05      18.56
C      14.04      12.90      20.17
C       8.39      12.11      20.02
C       8.29      10.93      19.30
C       7.09      10.58      18.66
C      12.75      11.40      18.77
C      12.84      12.57      19.53
C       0.58      14.12       9.07
C       0.39      10.50      14.36
C       0.31       8.04      14.33
C       0.43       9.26      12.20
C       0.36       9.28      13.61
C       0.45       8.03      11.52
C       0.47      10.51      11.40
C      13.67       1.92       9.14
C       0.23       5.58      14.36
C       0.40       6.81      12.20
C       0.32       6.80      13.62
C       0.54      12.87       9.87
C       8.40      12.11       9.96
C       8.34      10.93      10.69
C      12.96      11.38      11.38
C      12.99      12.54      10.61
C      13.66       1.95      21.00
C      13.76       5.58      15.72
C      13.75       6.82      17.89
C      13.80       6.80      16.47
C       6.91       3.26      20.19
C      12.57       4.06      20.21
C      12.60       5.24      19.46
C      13.72       5.57      18.68
C       8.06       4.77      18.69
C       8.05       3.61      19.46
C       6.92       3.28       9.84
C      12.64       4.00      10.06
C      12.73       5.18      10.79
C       0.34       5.55      11.41
C       8.12       4.74      11.34
C       8.08       3.59      10.56
C       3.96      14.18       5.91
C       3.75      10.52       0.64
C       3.64       8.06       0.69
C       3.77       9.29       2.81
C       3.71       9.31       1.40
C       3.78       8.07       3.49
C       5.02      12.06       5.08
C       4.97      10.88       4.35
C       2.72      11.42       3.63
C       2.76      12.59       4.39
C       4.00      14.16      24.12
C       3.85      10.53      29.38
C       3.74       8.07      29.36
C       3.68       9.29      27.22
C       3.74       9.31      28.64
C       3.62       8.06      26.56
C       3.47       1.96      24.12
C       3.63       5.61      29.40
C       3.62       6.84      27.23
C       3.67       6.83      28.65
C       3.51       3.21      24.92
C       3.58       5.58      26.44
C       3.91      12.90      24.92
C       5.01      12.04      24.99
C       4.92      10.86      25.73
C       3.74      10.54      26.43
C       2.65      11.42      26.36
C       2.72      12.58      25.60
C       3.44       1.95       5.89
C       3.53       5.60       0.67
C       3.72       6.85       2.82
C       3.65       6.82       1.41
C       3.53       3.21       5.11
C       2.43       4.08       5.06
C       2.51       5.27       4.33
C       3.67       5.59       3.61
C       4.77       4.71       3.67
C       4.71       3.54       4.42
C       3.91      12.92       5.11
C       3.82      10.55       3.60
C       2.40       4.07      24.95
C       2.44       5.25      25.69
C       4.68       4.71      26.42
C       4.66       3.55      25.65
C       7.39      14.22      20.92
C       7.12      10.56      15.71
C       7.02       8.10      15.74
C       7.02       9.32      17.87
C       7.04       9.34      16.46
C       6.97       8.10      18.55
C       7.28      12.95      20.14
C       1.55      12.04      20.07
C       1.45      10.86      19.34
C      13.85      10.53      18.67
C       5.98      11.43      18.78
C       6.07      12.60      19.53
C       7.33      14.21       9.11
C       7.14      10.56      14.35
C       7.05       8.10      14.31
C       7.12       9.32      12.18
C       7.09       9.34      13.60
C       7.11       8.10      11.51
C       7.17      10.58      11.40
C       6.85       2.03       9.04
C       6.95       5.64      14.34
C       7.07       6.88      12.18
C       7.04       6.86      13.60
C       7.28      12.95       9.90
C       1.65      12.01       9.89
C       1.60      10.83      10.64
C       6.06      11.43      11.33
C       6.10      12.60      10.57
C       6.89       2.01      20.99
C       6.93       5.64      15.71
C       6.96       6.87      17.87
C       6.98       6.85      16.46
C      13.68       3.21      20.21
C       5.78       4.09      20.16
C       5.81       5.27      19.42
C       6.94       5.62      18.66
C       1.23       4.70      18.68
C       1.22       3.54      19.45
C       0.17       3.18       9.92
C       5.82       4.15       9.88
C       5.88       5.32      10.63
C       7.03       5.62      11.38
C       1.46       4.72      11.27
C       1.39       3.55      10.52
O      10.68      16.12       8.30
O      11.87      14.51       6.42
O      10.37       0.07      21.80
O       9.66      14.72      23.83
O      11.38       1.22      24.14
O      11.91      14.46      23.74
O       9.13       1.56       6.27
O       9.64      14.78       6.08
O      11.39       1.35       6.21
O       9.17       1.55      23.74
O       0.61      16.07      23.35
O       8.56      14.59      21.27
O       0.05       0.00       6.75
O      13.08      14.78       8.97
O       7.94       1.40       8.82
O       8.46      14.57       8.64
O      12.56       1.62      21.54
O      13.06      14.79      21.21
O       8.00       1.39      21.14
O      12.50       1.55       8.77
O       3.45       0.01       8.29
O       5.08      14.51       6.42
O       4.00      16.12      21.74
O       2.92      14.79      23.88
O       4.56       1.29      24.02
O       5.17      14.52      23.75
O       2.28       1.60       6.29
O       2.88      14.84       6.02
O       4.52       1.29       6.09
O       2.36       1.61      23.61
O       6.96       0.01      23.34
O       1.72      14.52      21.32
O       6.85       0.00       6.70
O       6.24      14.85       8.97
O       1.15       1.28       8.89
O       1.70      14.46       8.56
O       5.77       1.62      21.47
O       6.31      14.84      21.19
O       1.15       1.28      21.07
O       5.69       1.67       8.63
